CoresoETL/UCT_Source/20221102_1230_FO3_GR0.UCT
##C 2007.05.01
*******************************************************
	Created by Transmission Network Analyzer_FORsee (TNA_FORsee). Made by EKC Belgrade & DMS Group Novi Sad, 2012.
	865  nodes
	950  lines
	131  transformers
	131  transformer regulations
	0  tap changers
*******************************************************

##N
##ZGR
GDIDIM31 131          0 0 156.41 4.42124 1.75104       0       0       0       0       0       0     0       0       0       0  
GALEXL31 231          0 0 157.34 13.4599  1.6933       0       0       0       0       0       0     0       0       0       0  
GKOMOT31 331          0 0 157.64 11.1367 1.95293       0       0       0       0       0       0     0       0       0       0  
GIASMO31 431          0 0 157.78       0       0       0       0       0       0       0       0     0       0       0       0  
GIASMO32 432          0 0 157.78 5.26615 2.26771       0       0       0       0       0       0     0       0       0       0  
GXANTH31 531          0 0 158.08 15.4741 6.20484       0       0       0       0       0       0     0       0       0       0  
GKAVAL31 631          0 0 159.42 12.9911  2.5838       0       0       0       0       0       0     0       0       0       0  
GKAVAL33 633          0 0    150       0       0       0       0       0       0       0       0     0       0       0       0  
GSTAGI31 731          0 0 161.69       0       0       0       0       0       0       0       0     0       0       0       0  
GSTAGI32 732          0 0 161.69  5.9743 1.59604       0       0       0       0       0       0     0       0       0       0  
GFOSFO31 831          0 0 159.37 -20.644 2.45834       0       0       0       0       0       0     0       0       0       0  
GFOSFO32 832          0 0 159.35       0       0       0       0       0       0       0       0     0       0       0       0  
GDRAMA31 931          0 0  159.7 16.1184 2.37843       0       0       0       0       0       0     0       0       0       0  
GPKOMO31 1031         0 0 157.68 9.21674 3.33623       0       0       0 -511.89 417.126 -410.07     0       0       0       0  
GPKOMO33 1033         0 0 157.68       0       0       0       0       0       0       0       0     0       0       0       0  
GSERRE31 1231         0 2  159.6 14.3205  5.8892 -11.416 3.24894       0     -16 3.24894 -3.2489     0       0       0       0  
GSERRE32 1232         0 0  159.6 7.67975 2.16872       0       0       0       0       0       0     0       0       0       0  
GKILKI31 1331         0 0  160.9  15.076 4.35003       0       0       0       0       0       0     0       0       0       0  
GNAPCO31 1431         0 0 159.17 8.79646 -.18366       0       0       0       0       0       0     0       0       0       0  
GNELVE31 1531         0 0 163.61 6.58822 .505818       0       0       0       0       0       0     0       0       0       0  
GNELVE32 1532         0 0 163.58 4.98915 .410733       0       0       0       0       0       0     0       0       0       0  
GNELVE33 1533         0 0 163.62 14.0895 2.97195       0       0       0       0       0       0     0       0       0       0  
GAMFPO31 1631         0 0 161.35   9.251 4.76424       0       0       0       0       0       0     0       0       0       0  
GPROVA31 1731         0 0  156.8 3.70398 3.34621       0       0       0       0       0       0     0       0       0       0  
GTHESS11 1811         0 0 421.07       0       0       0       0       0       0       0       0     0       0       0       0  
GTHESS13 1813         0 0 421.07       0       0       0       0       0       0       0       0     0       0       0       0  
GTHESS15 1815         0 0    400       0       0       0       0       0       0       0       0     0       0       0       0  
GTHESS16 1816         0 0    400       0       0       0       0       0       0       0       0     0       0       0       0  
GTHESS31 1831         0 0 163.08       0       0       0       0       0       0       0       0     0       0       0       0  
GTHESS33 1833         0 0 163.49 4.26407 1.47534       0       0       0       0       0       0     0       0       0       0  
GTHESS35 1835         0 0 163.49 8.54159 2.95676       0       0       0       0       0       0     0       0       0       0  
GTHESS37 1837         0 0  163.5       0       0       0       0       0       0       0       0     0       0       0       0  
GFILIP11 1911         0 0 416.07       0       0       0       0       0       0       0       0     0       0       0       0  
GFILIP12 1912         0 0 416.07       0       0       0       0       0       0       0       0     0       0       0       0  
GFILIP31 1931         0 0 159.83 7.40144 3.91846       0       0       0       0       0       0     0       0       0       0  
GFILIP33 1933         0 0    150       0       0       0       0       0       0       0       0     0       0       0       0  
GFILIP34 1934         0 0    150       0       0       0       0       0       0       0       0     0       0       0       0  
GFILIP35 1935         0 0 159.83       0       0       0       0       0       0       0       0     0       0       0       0  
GZARKA31 2031         0 0 158.97 2.67758 -.00087       0       0       0       0       0       0     0       0       0       0  
GZARKA32 2032         0 0 158.98       0       0       0       0       0       0       0       0     0       0       0       0  
GLHTH_32 2132         0 0 161.16 13.3696 4.64441       0       0       0       0       0       0     0       0       0       0  
GLHTH_33 2133         0 0 161.35       0       0       0       0       0       0       0       0     0       0       0       0  
GLHTH_34 2134         0 0 163.31       0       0       0       0       0       0       0       0     0       0       0       0  
GLHTH_3B 2135         0 0 163.31       0       0       0       0       0       0       0       0     0       0       0       0  
GSTIT_31 2231         0 0 163.48 3.12088 2.82086       0       0       0       0       0       0     0       0       0       0  
GSTIT_32 2232         0 0 163.48       0       0       0       0       0       0       0       0     0       0       0       0  
GSTIT_33 2233         0 0 163.48       0       0       0       0       0       0       0       0     0       0       0       0  
GSTIT_34 2234         0 0 163.51       0       0       0       0       0       0       0       0     0       0       0       0  
GSTIT_3B 2235         0 0 163.51       0       0       0       0       0       0       0       0     0       0       0       0  
GDOXA_31 2331         0 0 163.54 18.3857 2.79698       0       0       0       0       0       0     0       0       0       0  
GDOXA_32 2332         0 0    150       0       0       0       0       0       0       0       0     0       0       0       0  
GVAVDO31 2431         0 0 162.15 5.21101 1.07068       0       0       0       0       0       0     0       0       0       0  
GMOUDA31 2531         0 0 162.02 13.3379 3.45519       0       0       0       0       0       0     0       0       0       0  
G3THES31 2631         0 0 163.05 4.53195 .199722       0       0       0       0       0       0     0       0       0       0  
G3THES32 2632         0 0 163.53 8.71179 1.88737       0       0       0       0       0       0     0       0       0       0  
GPOLIC31 2731         0 0 163.47 10.2991 2.56339       0       0       0       0       0       0     0       0       0       0  
GPOLIC33 2733         0 0 163.48 7.71665  1.9373       0       0       0       0       0       0     0       0       0       0  
GEVOSM31 2831         0 0 163.01 22.9468 4.97612       0       0       0       0       0       0     0       0       0       0  
GEVOSM32 2832         0 0    150       0       0       0       0       0       0       0       0     0       0       0       0  
GGEFIR31 3031         0 0 162.54 8.42567 2.78786       0       0       0       0       0       0     0       0       0       0  
GEKO__31 3131         0 0 162.97 7.41486 1.03378       0       0       0       0       0       0     0       0       0       0  
GEKO__32 3132         0 0 162.83 16.9525 6.65248       0       0       0       0       0       0     0       0       0       0  
GEKO__33 3133         0 0 162.98       0       0       0       0       0       0       0       0     0       0       0       0  
GEKO__34 3134         0 0 162.86       0       0       0       0       0       0       0       0     0       0       0       0  
GSIDIR31 3231         0 2 158.99 3.15474 2.18088 -1.2189 8.04815       0 -77.199 15.6759 -15.676     0       0       0       0  
GSIDEN31 3331         0 0 164.24 2.17827 -15.071       0       0       0       0       0       0     0       0       0       0  
GSIDEN32 3332         0 0 164.24       0       0       0       0       0       0       0       0     0       0       0       0  
GSIDEN3B 3333         0 0 162.98       0       0       0       0       0       0       0       0     0       0       0       0  
GMEL__31 3431         0 0 162.15 4.40778 .159778       0       0       0       0       0       0     0       0       0       0  
GMEL__32 3432         0 0 162.15       0       0       0       0       0       0       0       0     0       0       0       0  
GNPELL31 3531         0 0 161.93 13.3097 5.20884       0       0       0       0       0       0     0       0       0       0  
GAGRAS31 3631         0 2 162.05       0       0     -16 -17.493       0  -46.56  49.311 -28.688     0       0       0       0  
GAGRAS32 3632         0 0    150       0       0       0       0       0       0       0       0     0       0       0       0  
GEDESS31 3731         0 0 162.03 .717697  1.1141       0       0       0       0       0       0     0       0       0       0  
GNAOUS31 3831         0 0 161.91  9.8806 4.06782       0       0       0       0       0       0     0       0       0       0  
GSINDO31 3931         0 0 162.72 15.2106 5.79368       0       0       0       0       0       0     0       0       0       0  
GSINDO34 3934         0 0    150       0       0       0       0       0       0       0       0     0       0       0       0  
GNALEX31 4031         0 0 162.24 8.95971 4.36306       0       0       0       0       0       0     0       0       0       0  
GKATER31 4131         0 0 160.38 25.2678 8.75564       0       0       0       0       0       0     0       0       0       0  
GKATER34 4134         0 0 160.85       0       0       0       0       0       0       0       0     0       0       0       0  
GKATER3B 4135         0 0 162.24       0       0       0       0       0       0       0       0     0       0       0       0  
GVERIA31 4231         0 0  162.1 6.83267 2.92463       0       0       0       0       0       0     0       0       0       0  
GVERIA33 4233         0 0  162.1 5.96301 1.75799       0       0       0       0       0       0     0       0       0       0  
GOR_PT32 4332         0 0 161.94       0       0       0       0       0       0       0       0     0       0       0       0  
GOR_PT33 4333         0 0    150       0       0       0       0       0       0       0       0     0       0       0       0  
GOR_PT34 4334         0 0    150       0       0       0       0       0       0       0       0     0       0       0       0  
GOR_PT35 4335         0 0 161.94 -4.6066 24.7228       0       0       0       0       0       0     0       0       0       0  
GOR_PT36 4336         0 0 161.94  -4.638  24.668       0       0       0       0       0       0     0       0       0       0  
GOR_PT37 4337         0 0    150       0       0       0       0       0       0       0       0     0       0       0       0  
GEORDE31 4531         0 0  161.5 6.57086 2.17089       0       0       0       0       0       0     0       0       0       0  
GPTOLE31 4631         0 0 161.56 1.84482 .090743       0       0       0       0       0       0     0       0       0       0  
GPTOLE37 4637         0 0 161.56 1.84482 .089441       0       0       0       0       0       0     0       0       0       0  
GPTOL531 4731         0 0 161.72       0       0       0       0       0       0       0       0     0       0       0       0  
GPTOL532 4732         0 0 161.72 13.9423 2.96804       0       0       0       0       0       0     0       0       0       0  
GKASIA31 4831         0 0 161.63  7.0541 .253126       0       0       0       0       0       0     0       0       0       0  
GGREVE31 4931         0 0 161.53 7.74401 .994703       0       0       0       0       0       0     0       0       0       0  
GSERVI31 5031         0 0 162.35 .257902 -.38946       0       0       0       0       0       0     0       0       0       0  
GKARDI11 5111         0 0    400       0       0       0       0       0       0       0       0     0       0       0       0  
GKARDI12 5112         0 0    400       0       0       0       0       0       0       0       0     0       0       0       0  
GKARDI13 5113         0 0 421.36       0       0       0       0       0       0       0       0     0       0       0       0  
GKARDI15 5115         0 0 421.36       0       0       0       0       0       0       0       0     0       0       0       0  
GKARDI17 5117         0 0 421.36       0       0       0       0       0       0       0       0     0       0       0       0  
GKARDI31 5131         0 0    150       0       0       0       0       0       0       0       0     0       0       0       0  
GKARDI32 5132         0 0    150       0       0       0       0       0       0       0       0     0       0       0       0  
GKARDI33 5133         0 0 162.06       0       0       0       0       0       0       0       0     0       0       0       0  
GKARDI35 5135         0 0 164.31       0       0       0       0       0       0       0       0     0       0       0       0  
GTRIKA11 5311         0 0 419.82       0       0       0       0       0       0       0       0     0       0       0       0  
GTRIKA12 5312         0 0 419.82       0       0       0       0       0       0       0       0     0       0       0       0  
GTRIKA31 5331         0 0 161.16 1.02075 -.86315       0       0       0       0       0       0     0       0       0       0  
GTRIKA32 5332         0 0 161.16 5.74852 2.38581       0       0       0       0       0       0     0       0       0       0  
GKALAB31 5431         0 0 161.38  3.8377 .582668       0       0       0       0       0       0     0       0       0       0  
GFLORI31 5531         0 0 161.87 4.59057 1.75452       0       0       0       0       0       0     0       0       0       0  
GPOLYF31 5631         0 0 164.42 .101164 .170632       0       0       0  -367.2 322.417 -241.27     0       0       0       0  
GPOLYF32 5632         0 0 162.05       0       0       0       0       0       0       0       0     0       0       0       0  
GADPOL31 5731         0 0 162.09 3.87331 2.99496       0       0       0       0       0       0     0       0       0       0  
GOREST31 5831         0 0 156.12 6.50356 .792376       0       0       0       0       0       0     0       0       0       0  
GKOZAN31 5931         0 0 161.95 14.5498 4.43209       0       0       0       0       0       0     0       0       0       0  
GMELIT11 6011         0 0  422.7       0       0       0       0       0       0       0       0     0       0       0       0  
GMELIT12 6012         0 0  422.7 .982112 -1.6455       0       0       0 -326.89 214.358 -198.53     0       0       0       0  
GMELIT13 6013         0 0    400       0       0       0       0       0       0       0       0     0       0       0       0  
GMELIT31 6031         0 0    150       0       0       0       0       0       0       0       0     0       0       0       0  
GMELIT32 6032         0 0 161.47 1.76059 .656044       0       0       0       0       0       0     0       0       0       0  
G1TRIK31 6131         0 0 161.22 7.09274  1.3351       0       0       0       0       0       0     0       0       0       0  
GPLAST31 6231         0 0 161.69 2.46657 .437218       0       0       0 -119.84 127.789 -84.911     0       0       0       0  
GKARTS31 6331         0 0  161.8  7.5026 2.83345       0       0       0       0       0       0     0       0       0       0  
G1LARI31 6431         0 0 161.88 10.6243 1.85047       0       0       0       0       0       0     0       0       0       0  
G1LARI32 6432         0 0    150       0       0       0       0       0       0       0       0     0       0       0       0  
G2LARI31 6531         0 0    150       0       0       0       0       0       0       0       0     0       0       0       0  
G2LARI32 6532         0 0 161.41 12.8825 3.60108       0       0       0       0       0       0     0       0       0       0  
G2LARI3B 6533         0 0 161.88       0       0       0       0       0       0       0       0     0       0       0       0  
GLEODA31 6631         0 0  162.7 2.13355 -.77154       0       0       0       0       0       0     0       0       0       0  
GLARIS12 6712         0 0  422.6       0       0       0       0       0       0       0       0     0       0       0       0  
GLARIS13 6713         0 0    400       0       0       0       0       0       0       0       0     0       0       0       0  
GLARIS14 6714         0 0    400       0       0       0       0       0       0       0       0     0       0       0       0  
GLARIS15 6715         0 0  422.6       0       0       0       0       0       0       0       0     0       0       0       0  
GLARIS31 6731         0 0 161.89 6.37852 2.08362       0       0       0       0       0       0     0       0       0       0  
GLARIS33 6733         0 0    150       0       0       0       0       0       0       0       0     0       0       0       0  
GLARIS34 6734         0 0    150       0       0       0       0       0       0       0       0     0       0       0       0  
GLARIS35 6735         0 0 161.99 .831886 .078152       0       0       0       0       0       0     0       0       0       0  
GPLATA31 6831         0 0 160.96 5.10377 2.37148       0       0       0       0       0       0     0       0       0       0  
GPATRI31 6931         0 2  152.8       0       0 -.86988 2.39561       0   -73.9  15.006 -15.006     0       0       0       0  
GPATRI32 6932         0 0    150       0       0       0       0       0       0       0       0     0       0       0       0  
GOSE_831 7031         0 0  161.9 .943036 .707711       0       0       0       0       0       0     0       0       0       0  
GALMIR31 7131         0 0 166.43 21.8357 16.8778       0       0       0       0       0       0     0       0       0       0  
GALMIR3B 7132         0 0 162.23       0       0       0       0       0       0       0       0     0       0       0       0  
GSTYLI31 7231         0 0 163.84       0       0       0       0       0       0       0       0     0       0       0       0  
GFARSA31 7331         0 0 162.18 4.21066 2.17002       0       0       0       0       0       0     0       0       0       0  
GLAMIA31 7431         0 0  162.9 9.95654 2.87122       0       0       0       0       0       0     0       0       0       0  
GLAMIA32 7432         0 0  162.9 7.34283 1.91212       0       0       0       0       0       0     0       0       0       0  
GLAMIA33 7433         0 0    150       0       0       0       0       0       0       0       0     0       0       0       0  
GAMFKL31 7531         0 0  164.2 6.57303  -4.858       0       0       0       0       0       0     0       0       0       0  
GMCHAL31 7631         0 0 168.39 -47.949 -63.129       0       0       0       0       0       0     0       0       0       0  
GMCHAL32 7632         0 0 162.22 .270927 -.24184       0       0       0       0       0       0     0       0       0       0  
GMCHAL35 7635         0 0 162.22       0       0       0       0       0       0       0       0     0       0       0       0  
GMCHAL36 7636         0 0 166.59       0       0       0       0       0       0       0       0     0       0       0       0  
GLIVAD31 7731         0 0 165.13  -15.84 -12.683       0       0       0       0       0       0     0       0       0       0  
GKARPE31 7831         0 0 162.02 1.50443 -.00955       0       0       0       0       0       0     0       0       0       0  
GAMFSA31 7931         0 0 161.28 6.61601 .473689       0       0       0       0       0       0     0       0       0       0  
GATALA31 8031         0 0 164.25 6.97985 2.16047       0       0       0       0       0       0     0       0       0       0  
GSPERH31 8131         0 0 162.56 1.29602 -.54533       0       0       0       0       0       0     0       0       0       0  
GLARKO31 8231         0 0  164.7 -3.3994 -2.7715       0       0       0       0       0       0     0       0       0       0  
GLARKO32 8232         0 0 164.11   8.407 2.94634       0       0       0       0       0       0     0       0       0       0  
GLARKO33 8233         0 0 164.67       0       0       0       0       0       0       0       0     0       0       0       0  
GCHATH31 8331         0 0 162.22 2.15049 -2.1896       0       0       0       0       0       0     0       0       0       0  
GCHATH32 8332         0 0 162.22       0       0       0       0       0       0       0       0     0       0       0       0  
GVAGET31 8431         0 0 162.12 13.7635 6.55436       0       0       0       0       0       0     0       0       0       0  
G2VOLO31 8531         0 0 162.21 7.23645 1.51745       0       0       0       0       0       0     0       0       0       0  
G2VOLO33 8533         0 0 162.21 6.39632 1.15101       0       0       0       0       0       0     0       0       0       0  
GLAFKO31 8631         0 0 161.82 8.93105 1.55175       0       0       0       0       0       0     0       0       0       0  
GVPVOL31 8731         0 0 163.05 8.62365 2.56296       0       0       0       0       0       0     0       0       0       0  
G1VOLO31 8831         0 0  162.7  9.5419 3.06313       0       0       0       0       0       0     0       0       0       0  
GKOPAI31 8931         0 0 164.76 3.58414 0.67124       0       0       0       0       0       0     0       0       0       0  
GSCHIM31 9031         0 0 163.82 12.4119 2.22082       0       0       0       0       0       0     0       0       0       0  
GSCHIM33 9033         0 0    150       0       0       0       0       0       0       0       0     0       0       0       0  
GILIKI31 9131         0 0 164.99 5.42202 1.62122       0       0       0       0       0       0     0       0       0       0  
GELVAL31 9231         0 0  163.4 34.8181 10.1871       0       0       0       0       0       0     0       0       0       0  
GKVOUR31 9331         0 0 163.75 3.27935 1.71587       0       0       0       0       0       0     0       0       0       0  
GLARYM11 9411         0 0 418.38       0       0       0       0       0       0       0       0     0       0       0       0  
GLARYM13 9413         0 0    400       0       0       0       0       0       0       0       0     0       0       0       0  
GLARYM14 9414         0 0    400       0       0       0       0       0       0       0       0     0       0       0       0  
GLARYM15 9415         0 0 418.38       0       0       0       0       0       0       0       0     0       0       0       0  
GLARYM17 9417         0 0    400       0       0       0       0       0       0       0       0     0       0       0       0  
GLARYM32 9432         0 0 164.69 2.87513 1.19964       0       0       0       0       0       0     0       0       0       0  
GLARYM34 9434         0 2 164.69       0       0 -2.4098 -7.7162       0     -38 7.71623 -7.7162     0       0       0       0  
GTHIVA33 9633         0 0 164.35 16.8074 4.98741       0       0       0       0       0       0     0       0       0       0  
G2CHAL31 9731         0 0 164.09  3.8199 1.21787       0       0       0       0       0       0     0       0       0       0  
GMKRYX31 9831         0 0 161.25 6.19225 2.34109       0       0       0       0       0       0     0       0       0       0  
GTSCHA31 9931         0 0    150       0       0       0       0       0       0       0       0     0       0       0       0  
GTSCHA32 9932         0 0 164.13       0       0       0       0       0       0       0       0     0       0       0       0  
GTSCHA3B 9933         0 0 164.13       0       0       0       0       0       0       0       0     0       0       0       0  
G1CHAL31 10031        0 0 164.24 12.9368 4.08605       0       0       0       0       0       0     0       0       0       0  
GMADOU31 10131        0 0 164.35 2.87904 .819295       0       0       0       0       0       0     0       0       0       0  
GAEDIP31 10231        0 0 165.14 4.61228 2.00243       0       0       0       0       0       0     0       0       0       0  
GERETR31 10331        0 0 164.83 3.86506    1.56       0       0       0       0       0       0     0       0       0       0  
GEAV__31 10431        0 0 164.13  -3.736 -28.723       0       0       0       0       0       0     0       0       0       0  
GEAV__32 10432        0 0    164       0       0       0       0       0       0       0       0     0       0       0       0  
GINOFI31 10531        0 0 163.15 21.9799 7.77349       0       0       0       0       0       0     0       0       0       0  
GOSE_231 10631        0 0 163.92 2.37322 7.41486       0       0       0       0       0       0     0       0       0       0  
GPALAI31 10731        0 2 161.42       0       0  -20.93 7.71217       0  -37.98 7.71217 -7.7122     0       0       0       0  
GOSE3_31 10931        0 0 164.82       0       0       0       0       0       0       0       0     0       0       0       0  
GVAGIA31 11031        0 2 164.82       0       0 -4.9863 -14.842       0 -78.629 15.9663 -15.966     0       0       0       0  
GKARIS31 11131        0 2 163.47 -9.0223 .565262 -4.0474 -6.9446       0   -34.2 6.94461 -6.9446     0       0       0       0  
GKARIS32 11132        0 0 163.47       0       0       0       0       0       0       0       0     0       0       0       0  
GPSACH31 11231        0 0 164.42 4.49548 1.79533       0       0       0       0       0       0     0       0       0       0  
GPSACH32 11232        0 0 164.42 4.60924 1.45146       0       0       0       0       0       0     0       0       0       0  
GAGETM31 11331        0 0 165.75 10.0638 4.41039       0       0       0       0       0       0     0       0       0       0  
GKOKKI31 11431        0 2 165.17       0       0 -6.0245 -19.291       0     -95 19.2906 -19.291     0       0       0       0  
GALIVE32 11532        0 0 165.73  2.1405 -.32259       0       0       0       0       0       0     0       0       0       0  
GALIVE33 11533        0 0 165.73       0       0       0       0       0       0       0       0     0       0       0       0  
GALIVE34 11534        0 0 165.73 2.25686  1.5574       0       0       0       0       0       0     0       0       0       0  
GALIVE35 11535        0 0 165.73       0       0       0       0       0       0       0       0     0       0       0       0  
GSTEFA11 11611        0 0 418.05       0       0       0       0       0       0       0       0     0       0       0       0  
GSTEFA13 11613        0 0 418.05       0       0       0       0       0       0       0       0     0       0       0       0  
GSTEFA15 11615        0 0    400       0       0       0       0       0       0       0       0     0       0       0       0  
GSTEFA16 11616        0 0    400       0       0       0       0       0       0       0       0     0       0       0       0  
GSTEFA17 11617        0 0 418.05       0       0       0       0       0       0       0       0     0       0       0       0  
GSTEFA31 11631        0 0 162.09 27.2078 .799757       0       0       0       0       0       0     0       0       0       0  
GSTEFA33 11633        0 0 162.09 48.1747 -4.0227       0       0       0       0       0       0     0       0       0       0  
GKASSI31 11731        0 2 161.05       0       0 -1.4146 -15.457       0 -89.599  10.764  10.764     0       0       0       0  
GPETRO31 11831        0 2 159.65       0       0 -.25262 3.24894       0     -16 3.24894 -3.2489     0       0       0       0  
GPETRO32 11832        0 0 159.65       0       0       0       0       0       0       0       0     0       0       0       0  
GOLHOR31 11931        0 0  162.1 6.89302 -.16108       0       0       0       0       0       0     0       0       0       0  
GOLHOR32 11932        0 0    150       0       0       0       0       0       0       0       0     0       0       0       0  
GACHAR11 12011        0 0 417.58       0       0       0       0       0       0       0       0     0       0       0       0  
GACHAR13 12013        0 0 417.58       0       0       0       0       0       0       0       0     0       0       0       0  
GACHAR15 12015        0 0    400       0       0       0       0       0       0       0       0     0       0       0       0  
GACHAR16 12016        0 0    400       0       0       0       0       0       0       0       0     0       0       0       0  
GACHAR31 12031        0 0 160.86 37.3003 -.22056       0       0       0       0       0       0     0       0       0       0  
GACHAR32 12032        0 0 161.18 21.7579  -8.275       0       0       0       0       0       0     0       0       0       0  
GOSE_131 12131        0 0 160.82 -2.7887  2.8999       0       0       0       0       0       0     0       0       0       0  
GASPRA31 12231        0 2 158.46       0       0  -2.257 -7.2269       0  -35.59 7.22686 -7.2269     0       0       0       0  
GSKOUR31 12331        0 2 163.71       0       0 -6.7278 -21.542       0 -106.09 21.5425 -21.542     0       0       0       0  
GLIGER31 12431        0 2 161.66       0       0 -.63154 -.95409       0     -40 8.12235 -8.1223     0       0       0       0  
GAMARI31 12531        0 2 165.66       0       0 -2.1302 -3.6551       0     -18 3.65506 -3.6551     0       0       0       0  
GNCHAL31 12631        0 0  160.8 38.6896  -4.858       0       0       0       0       0       0     0       0       0       0  
GNCHAL32 12632        0 0 161.39 59.9262 -7.0767       0       0       0       0       0       0     0       0       0       0  
GVOUNI31 12731        0 2 158.47       0       0 -1.0105  -6.699       0     -64 12.9958 -12.996     0       0       0       0  
GNAFKT31 12831        0 0 159.77 6.48923 1.84222       0       0       0       0       0       0     0       0       0       0  
GNMAKR31 12931        0 0 162.91 13.3206 3.31278       0       0       0       0       0       0     0       0       0       0  
GELCHA31 13031        0 0 161.92       0       0       0       0       0       0       0       0     0       0       0       0  
GACHEL11 13111        0 0 415.55       0       0       0       0       0       0       0       0     0       0       0       0  
GACHEL12 13112        0 0 415.55       0       0       0       0       0       0       0       0     0       0       0       0  
GACHEL13 13113        0 0    400       0       0       0       0       0       0       0       0     0       0       0       0  
GACHEL14 13114        0 0 415.55       0       0       0       0       0       0       0       0     0       0       0       0  
GACHEL31 13131        0 0 160.63       0       0       0       0       0       0       0       0     0       0       0       0  
GACHEL33 13133        0 0 158.92       0       0       0       0       0       0       0       0     0       0       0       0  
GACHEL35 13135        0 0 158.92       0       0       0       0       0       0       0       0     0       0       0       0  
GLEYKA31 13231        0 2 159.86       0       0 -.69469 -3.3254       0     -44 8.93458 -8.9346     0       0       0       0  
GKOUMO11 13311        0 0    400       0       0       0       0       0       0       0       0     0       0       0       0  
GKOUMO12 13312        0 0    400       0       0       0       0       0       0       0       0     0       0       0       0  
GKOUMO14 13314        0 0 416.74       0       0       0       0       0       0       0       0     0       0       0       0  
GKOUMO16 13316        0 0 416.74       0       0       0       0       0       0       0       0     0       0       0       0  
GKOUMO17 13317        0 0 416.74       0       0       0       0       0       0       0       0     0       0       0       0  
GKOUMO18 13318        0 0 416.74       0       0       0       0       0       0       0       0     0       0       0       0  
GKOUMO19 13319        0 0 416.74       0       0       0       0       0       0       0       0     0       0       0       0  
GKOUMO32 13332        0 0 161.49 2.16525 -4.4338       0       0       0       0       0       0     0       0       0       0  
GKOUMO33 13333        0 0    150       0       0       0       0       0       0       0       0     0       0       0       0  
GKOUMO34 13334        0 0    150       0       0       0       0       0       0       0       0     0       0       0       0  
GKOUMO36 13336        0 0 161.92 10.8015 -1.6586       0       0       0       0       0       0     0       0       0       0  
GKOUMO37 13337        0 0 161.55 40.4042 2.81956       0       0       0       0       0       0     0       0       0       0  
GKOUMO38 13338        0 0 161.96  31.728 -9.5016       0       0       0       0       0       0     0       0       0       0  
GKALST31 13431        0 0 161.72       0       0       0       0       0       0       0       0     0       0       0       0  
GKALST32 13432        0 0 161.72 7.17345 .554012       0       0       0       0       0       0     0       0       0       0  
GIRON_31 13531        0 0 161.86       0       0       0       0       0 -106.82  67.806 -75.161     0       0       0       0  
GIRON_32 13532        0 0 161.86       0       0       0       0       0 -50.799  35.042 -39.958     0       0       0       0  
GTHISV11 13611        0 2 412.97       0       0    -240 193.737       0  -435.7 307.781 -355.92     0       0       0       0  
GTHISV12 13612        0 0 412.97       0       0       0       0       0       0       0       0     0       0       0       0  
GTHISV13 13613        0 2    413 1.20571 -9.2979 -1.9025 6.09176       0     -30 6.09176 -6.0918     0       0       0       0  
GALOUM31 13731        0 0  156.3       0       0       0       0       0       0       0       0     0       0       0       0  
GALOUM32 13732        0 0  156.3  84.221 43.5779       0       0       0       0       0       0     0       0       0       0  
GALOUM33 13733        0 0  156.3       0       0       0       0       0       0       0       0     0       0       0       0  
GALOUM34 13734        0 0  156.3 240.089 135.537       0       0       0       0       0       0     0       0       0       0  
GGIONA31 13831        0 0 159.17       0       0       0       0       0       0       0       0     0       0       0       0  
GGIONA32 13832        0 0 159.17       0       0       0       0       0       0       0       0     0       0       0       0  
GDISTO11 13911        0 0 415.83       0       0       0       0       0       0       0       0     0       0       0       0  
GDISTO13 13913        0 0 415.83       0       0       0       0       0       0       0       0     0       0       0       0  
GDISTO15 13915        0 0 415.83       0       0       0       0       0       0       0       0     0       0       0       0  
GDISTO31 13931        0 0 157.92 -4.2105 -2.3628       0       0       0       0       0       0     0       0       0       0  
GDISTO33 13933        0 2 157.92  -.1785 -3.2976 -1.9531  -6.254       0 -30.799   6.254  -6.254     0       0       0       0  
GROUF_31 14031        0 0 161.97 18.7448 -8.5707       0       0       0       0       0       0     0       0       0       0  
GROUF_32 14032        0 0 161.73 24.7186 -5.0604       0       0       0       0       0       0     0       0       0       0  
GKORON31 14131        0 2 161.08       0       0 -10.139 -17.398       0 -159.88  32.465 -32.465     0       0       0       0  
GKTIT_31 14231        0 0 162.95 15.5805  6.9195       0       0       0       0       0       0     0       0       0       0  
GKTIT_32 14232        0 0 162.97       0       0       0       0       0       0       0       0     0       0       0       0  
GINTER31 14331        0 0 163.38 2.29029 -.06165       0       0       0       0       0       0     0       0       0       0  
GINTER32 14332        0 0    150       0       0       0       0       0       0       0       0     0       0       0       0  
GINTER33 14333        0 0 163.38       0       0       0       0       0       0       0       0     0       0       0       0  
GMARAT31 14431        0 2 159.66       0       0 -.58417 -3.5188       0     -37 7.51317 -7.5132     0       0       0       0  
GPANOR32 14532        0 2 162.72       0       0 -5.0066 -7.9379       0 -78.949 16.0313 -16.031     0       0       0       0  
GDIST231 14631        0 0 157.93       0       0       0       0       0       0       0       0     0       0       0       0  
GKITHE31 14731        0 2 163.38       0       0 -5.0035 -10.753       0   -78.9 16.0213 -16.021     0       0       0       0  
GKITHE33 14733        0 0 162.97       0       0       0       0       0       0       0       0     0       0       0       0  
GATHIN31 14831        0 2 156.64       0       0 -.72567 -2.5179       0   -12.4 2.51793 -2.5179     0       0       0       0  
GMHLA231 14931        0 2 165.76       0       0 -9.8523 -16.905       0  -83.25 16.9046 -16.905     0       0       0       0  
GMHLA232 14932        0 0 165.76       0       0       0       0       0       0       0       0     0       0       0       0  
GMARKO31 15031        0 0 159.94 14.4004 1.83658       0       0       0       0       0       0     0       0       0       0  
GMARKO32 15032        0 0 159.94  12.401  2.0567       0       0       0       0       0       0     0       0       0       0  
GPALLI11 15111        0 0    400       0       0       0       0       0       0       0       0     0       0       0       0  
GPALLI12 15112        0 0    400       0       0       0       0       0       0       0       0     0       0       0       0  
GPALLI13 15113        0 0 418.09       0       0       0       0       0       0       0       0     0       0       0       0  
GPALLI15 15115        0 0 418.09       0       0       0       0       0       0       0       0     0       0       0       0  
GPALLI31 15131        0 0    150       0       0       0       0       0       0       0       0     0       0       0       0  
GPALLI32 15132        0 0    150       0       0       0       0       0       0       0       0     0       0       0       0  
GPALLI33 15133        0 0 160.14 80.9708 .002171       0       0       0       0       0       0     0       0       0       0  
GPALLI35 15135        0 0 159.21 66.3399 -29.915       0       0       0       0       0       0     0       0       0       0  
GPALLI37 15137        0 0 160.14       0       0       0       0       0       0       0       0     0       0       0       0  
GSPATA31 15231        0 0 159.57 5.55966 -.49062       0       0       0       0       0       0     0       0       0       0  
GSPATA32 15232        0 0 159.57 12.1227 .176711       0       0       0       0       0       0     0       0       0       0  
GARGYR31 15331        0 0 160.41  33.565 -8.9862       0       0       0       0       0       0     0       0       0       0  
GARGYR33 15333        0 0 160.41 35.5544 -9.4542       0       0       0       0       0       0     0       0       0       0  
GMPENI31 15431        0 2 168.23       0       0 -112.59 41.4849       0  -204.3 41.4849 -41.485     0       0       0       0  
GLAVRI35 15535        0 0    150       0       0       0       0       0       0       0       0     0       0       0       0  
GLAVRI36 15536        0 0 160.13       0       0       0       0       0       0       0       0     0       0       0       0  
GLAVRI37 15537        0 0 160.13       0       0       0       0       0       0       0       0     0       0       0       0  
GLAGIS31 15631        0 0 160.12 4.94963 -4.3292       0       0       0       0       0       0     0       0       0       0  
GLAGIS34 15634        0 0 160.12 4.97265 -4.6917       0       0       0       0       0       0     0       0       0       0  
GLAGIS37 15637        0 0 160.12       0       0       0       0       0       0       0       0     0       0       0       0  
GLAGIS38 15638        0 0 160.12       0       0       0       0       0       0       0       0     0       0       0       0  
GLAGIS39 15639        0 0    150       0       0       0       0       0       0       0       0     0       0       0       0  
GBLAXO31 15731        0 2 159.33       0       0 -.29998 -3.8581       0     -19 3.85811 -3.8581     0       0       0       0  
GSYROS31 16031        0 0 159.24 3.43262 .343869       0       0       0       0       0       0     0       0       0       0  
GSYROS32 16032        0 0 159.24 1.96813 -.33171       0       0       0       0       0       0     0       0       0       0  
GSYROS33 16033        0 0 159.24       0       0       0       0       0       0       0       0     0       0       0       0  
GSYROS34 16034        0 0 159.24       0       0       0       0       0       0       0       0     0       0       0       0  
GSYROS35 16035        0 0 159.24       0       0       0       0       0       0       0       0     0       0       0       0  
GSYROS36 16036        0 0 159.24       0       0       0       0       0       0       0       0     0       0       0       0  
GSYROS39 16039        0 0 159.24       0       0       0       0       0       0       0       0     0       0       0       0  
GNAXOS31 16131        0 0  157.9 2.62808 -.60003       0       0       0       0       0       0     0       0       0       0  
GNAXOS32 16132        0 0  157.9  .89571 .330844       0       0       0       0       0       0     0       0       0       0  
GNAXOS33 16133        0 0  157.9       0       0       0       0       0       0       0       0     0       0       0       0  
GNAXOS34 16134        0 0  157.9       0       0       0       0       0       0       0       0     0       0       0       0  
GMYKON31 16231        0 0 158.59 7.15222 2.16308       0       0       0       0       0       0     0       0       0       0  
GMYKON32 16232        0 0 158.59 8.87504 2.66238       0       0       0       0       0       0     0       0       0       0  
GMYKON33 16233        0 0 158.59       0       0       0       0       0       0       0       0     0       0       0       0  
GMYKON34 16234        0 0 158.59       0       0       0       0       0       0       0       0     0       0       0       0  
GELPEE31 16431        0 0 161.96 5.43461 .352987       0       0       0       0       0       0     0       0       0       0  
GELPEE32 16432        0 0 161.96 5.40075 .386419       0       0       0       0       0       0     0       0       0       0  
GELPEE33 16433        0 0 161.96       0       0       0       0       0       0       0       0     0       0       0       0  
GELPEE34 16434        0 0 161.96       0       0       0       0       0       0       0       0     0       0       0       0  
GELPEE35 16435        0 0 161.96       0       0       0       0       0       0       0       0     0       0       0       0  
GELPEE36 16436        0 0 161.96       0       0       0       0       0       0       0       0     0       0       0       0  
GAISAG33 16533        0 0 161.44 36.6451 -.12418       0       0       0       0       0       0     0       0       0       0  
GAISAG36 16536        0 0 161.87 55.5366 -5.6695       0       0       0       0       0       0     0       0       0       0  
GAISAG37 16537        0 0 161.45       0       0       0       0       0       0       0       0     0       0       0       0  
GAISAG38 16538        0 0 161.88       0       0       0       0       0       0       0       0     0       0       0       0  
GPAROS31 16731        0 0 157.87 5.04689 .001737       0       0       0       0       0       0     0       0       0       0  
GPAROS32 16732        0 0 157.87 4.54455 -.12461       0       0       0       0       0       0     0       0       0       0  
GPAROS33 16733        0 0 157.87       0       0       0       0       0       0       0       0     0       0       0       0  
GPAROS34 16734        0 0 157.87       0       0       0       0       0       0       0       0     0       0       0       0  
GNAFPI31 16831        0 0    150       0       0       0       0       0       0       0       0     0       0       0       0  
GNAFPI32 16832        0 0 161.48       0       0       0       0       0       0       0       0     0       0       0       0  
GNAFPI3B 16833        0 0 161.48       0       0       0       0       0       0       0       0     0       0       0       0  
GASPRO31 17031        0 0 161.79 10.4502 3.72265       0       0       0       0       0       0     0       0       0       0  
GASPRO32 17032        0 0 161.79 3.12261 .870528       0       0       0       0       0       0     0       0       0       0  
GSALAM31 17131        0 0 161.38 9.97134 2.50087       0       0       0       0       0       0     0       0       0       0  
GSALAM32 17132        0 0 161.47       0       0       0       0       0       0       0       0     0       0       0       0  
GCHALI31 17231        0 0    150       0       0       0       0       0       0       0       0     0       0       0       0  
GTHEOD31 17331        0 0 162.46  6.4914 2.40795       0       0       0       0       0       0     0       0       0       0  
G3LARI31 17431        0 0 161.47 10.7759  3.1009       0       0       0       0       0       0     0       0       0       0  
GMTOIL31 17531        0 0 161.54       0       0       0       0       0       0       0       0     0       0       0       0  
GMTOIL32 17532        0 0 161.54 1.67115 6.17619       0       0       0       0       0       0     0       0       0       0  
GDORI131 17631        0 2 157.47       0       0 -2.0775 -3.9427       0   -35.5 7.20858 -7.2086     0       0       0       0  
GDORI132 17632        0 2 157.49       0       0 -1.1412 -2.6552       0   -19.5 3.95964 -3.9596     0       0       0       0  
GDORI133 17633        0 0 157.47       0       0       0       0       0       0       0       0     0       0       0       0  
GDORI134 17634        0 0 157.49       0       0       0       0       0       0       0       0     0       0       0       0  
GDORI231 17731        0 2 157.52       0       0 -2.4579 2.41338       0     -42 8.52846 -8.5285     0       0       0       0  
GELDA_31 17831        0 0 161.89 10.6886 4.40908       0       0       0       0       0       0     0       0       0       0  
GELDA_32 17832        0 0 161.96       0       0       0       0       0       0       0       0     0       0       0       0  
GELDA_33 17833        0 0 161.96       0       0       0       0       0       0       0       0     0       0       0       0  
GELDA_34 17834        0 0 161.92       0       0       0       0       0       0       0       0     0       0       0       0  
GDIDYM31 17931        0 2 160.08       0       0 -2.2238 2.28345       0     -38 7.71623 -7.7162     0       0       0       0  
GELEFS31 18031        0 0 161.89 18.7547 4.58883       0       0       0       0       0       0     0       0       0       0  
GMEGAR31 18131        0 0 161.97 11.6207 4.47899       0       0       0       0       0       0     0       0       0       0  
GKORIN31 18231        0 0  161.5 9.65005 3.90109       0       0       0       0       0       0     0       0       0       0  
GKORIN32 18232        0 0  161.5 13.4882 6.06374       0       0       0       0       0       0     0       0       0       0  
GVELO_31 18331        0 0  161.3 8.02318  3.2902       0       0       0       0       0       0     0       0       0       0  
GXILOK31 18431        0 0 160.69 5.99774 1.45623       0       0       0       0       0       0     0       0       0       0  
GAEGIO31 18531        0 0 159.85 11.3607 3.45476       0       0       0       0       0       0     0       0       0       0  
GPTIT_31 18631        0 0 158.93 7.22642 1.66725       0       0       0       0       0       0     0       0       0       0  
GPTIT_32 18632        0 0 158.96       0       0       0       0       0       0       0       0     0       0       0       0  
G2ARGO31 18731        0 0 159.65 2.65326 1.52006       0       0       0       0       0       0     0       0       0       0  
G2ARGO32 18732        0 0 159.65 5.96431 1.83614       0       0       0       0       0       0     0       0       0       0  
GKILLI31 18831        0 0 159.33       0       0       0       0       0       0       0       0     0       0       0       0  
G1ARGO31 18931        0 0 158.95 16.1306 7.41837       0       0       0       0       0       0     0       0       0       0  
GKRANI31 19031        0 0 160.47 8.69703 1.80184       0       0       0       0       0       0     0       0       0       0  
GASTRO31 19131        0 0  159.1 3.98836 1.62904       0       0       0       0       0       0     0       0       0       0  
G2TRIK31 19231        0 0 161.25 11.1849 3.89154       0       0       0       0       0       0     0       0       0       0  
GTRIPO31 19331        0 0 157.17    9.69 1.13798       0       0       0       0       0       0     0       0       0       0  
GMETHA31 19431        0 2 161.33 6.85655 1.53699 -1.5859 -2.0676       0   -27.1 5.50289 -5.5029     0       0       0       0  
G1MEGA31 19531        0 0 156.25 3.15821 2.68279       0       0       0  -300.1  170.77 -193.13     0       0       0       0  
G1MEGA33 19533        0 0 156.25  5.8206 3.13043       0       0       0       0       0       0     0       0       0       0  
G2MEGA31 19631        0 2 155.97 .600469  2.0224    -225 94.6664       0  -300.1   212.1  -206.3     0       0       0       0  
G2MEGA32 19632        0 0 155.97 4.21631 4.09995       0       0       0       0       0       0     0       0       0       0  
GCHORE31 19731        0 0 156.05 -3.3101 7.15894       0       0       0       0       0       0     0       0       0       0  
G1SPAR31 19831        0 0 159.35 -3.8738 -14.493       0       0       0       0       0       0     0       0       0       0  
GMOLAI31 19931        0 2 156.87 2.96587 .620875 -.45061 1.56355       0    -7.7 1.56355 -1.5636     0       0       0       0  
GMOLAI32 19932        0 0 156.87 1.22178 .107242       0       0       0       0       0       0     0       0       0       0  
GKALTA31 20031        0 0 156.54 15.6929 5.70033       0       0       0       0       0       0     0       0       0       0  
GLADON31 20131        0 0 156.04 2.06929 1.04724       0       0       0     -61  46.729  -42.87     0       0       0       0  
GPYRGO31 20231        0 0 155.95 5.69859 2.43314       0       0       0       0       0       0     0       0       0       0  
GPYRGO32 20232        0 0 155.95 3.90934 1.30254       0       0       0       0       0       0     0       0       0       0  
GKIPAR31 20331        0 0 155.99 1.73454 2.43487       0       0       0       0       0       0     0       0       0       0  
GLECHE31 20431        0 0 156.16 10.2614 3.02709       0       0       0       0       0       0     0       0       0       0  
GLECHE3B 20433        0 0 159.36       0       0       0       0       0       0       0       0     0       0       0       0  
G2PATR31 20531        0 0 158.59 4.78421 1.26997       0       0       0       0       0       0     0       0       0       0  
G2PATR32 20532        0 0 158.59  5.9096 1.67897       0       0       0       0       0       0     0       0       0       0  
G1PATR31 20631        0 0 158.65 12.4231 .491056       0       0       0       0       0       0     0       0       0       0  
GTRICH31 20731        0 0 159.06 4.55323 2.29767       0       0       0       0       0       0     0       0       0       0  
GTRICH32 20732        0 0 159.06 3.98055 1.17879       0       0       0       0       0       0     0       0       0       0  
GAETOL31 20831        0 2 159.67 14.5936  4.8641 -1.0147 -3.2489       0     -16 3.24894 -3.2489     0       0       0       0  
GKASTR31 20931        0 0 159.03 1.06113 1.19529       0       0       0    -320 283.421 -193.77     0       0       0       0  
GKASTR32 20932        0 0 159.03       0       0       0       0       0       0       0       0     0       0       0       0  
GKASTR33 20933        0 0 159.03       0       0       0       0       0       0       0       0     0       0       0       0  
GKASTR34 20934        0 0 159.03       0       0       0       0       0       0       0       0     0       0       0       0  
GZAKIN31 21031        0 0 158.53 19.8784 5.65604       0       0       0       0       0       0     0       0       0       0  
GZAKIN32 21032        0 0 158.53       0       0       0       0       0       0       0       0     0       0       0       0  
GZAKIN33 21033        0 0 158.53       0       0       0       0       0       0       0       0     0       0       0       0  
GKREMA31 21131        0 2 161.25 1.32902  .60785     -20 -6.0031       0  -408.6 388.937 -236.16     0       0       0       0  
GKREMA32 21132        0 0 161.25       0       0       0       0       0       0       0       0     0       0       0       0  
GARGST31 21231        0 0 155.98 12.3168 5.46414       0       0       0       0       0       0     0       0       0       0  
GARGST32 21232        0 0 155.98       0       0       0       0       0       0       0       0     0       0       0       0  
GARGST33 21233        0 0 155.98       0       0       0       0       0       0       0       0     0       0       0       0  
GAKTIO31 21331        0 0 160.26 5.06643 1.44321       0       0       0       0       0       0     0       0       0       0  
GAKTIO32 21332        0 0 160.26       0       0       0       0       0       0       0       0     0       0       0       0  
GAKTIO33 21333        0 0 160.26       0       0       0       0       0       0       0       0     0       0       0       0  
GLOURO31 21431        0 2 160.24 .703803 1.72108 -2.8283   -1.35       0  -3.964    3.13   -1.35     0       0       0       0  
G1IOAN31 21531        0 0 160.02 20.7911 6.97156       0       0       0       0       0       0     0       0       0       0  
GIGOUM31 21631        0 0 160.23   5.686 1.61428       0       0       0       0       0       0     0       0       0       0  
GIGOUM32 21632        0 0 160.23       0       0       0       0       0       0       0       0     0       0       0       0  
GIGOUM61 21661        0 0     70       0       0       0       0       0       0       0       0     0       0       0       0  
GIGOUM6B 21662        0 0 66.356       0       0       0       0       0       0       0       0     0       0       0       0  
G1KERK32 21832        0 0 160.57       0       0       0       0       0       0       0       0     0       0       0       0  
G1KERK61 21861        0 0 70.337 9.57489  3.0983       0       0       0       0       0       0     0       0       0       0  
GVZPAT31 21931        0 0 157.21 15.8658 6.72629       0       0       0       0       0       0     0       0       0       0  
G2IOAN31 22031        0 0 159.95 14.6978 3.98663       0       0       0       0       0       0     0       0       0       0  
GAGVAS31 22231        0 0 160.88 14.7985 6.79359       0       0       0       0       0       0     0       0       0       0  
GVPPRE31 22331        0 0 160.25 7.01459 2.91073       0       0       0       0       0       0     0       0       0       0  
GMESOG31 22431        0 0 160.61 8.99705 5.51363       0       0       0       0       0       0     0       0       0       0  
GMOURT31 22531        0 0 159.87 2.01936 -.14154       0       0       0       0       0       0     0       0       0       0  
GMOURT32 22532        0 0 159.87 2.05714 -.18757       0       0       0       0       0       0     0       0       0       0  
GMOURT33 22533        0 0 159.87       0       0       0       0       0       0       0       0     0       0       0       0  
GMOURT34 22534        0 0 159.87       0       0       0       0       0       0       0       0     0       0       0       0  
GARACH11 22611        0 0 417.99       0       0       0       0       0       0       0       0     0       0       0       0  
GARACH12 22612        0 0 417.99       0       0       0       0       0       0       0       0     0       0       0       0  
GARACH13 22613        0 0    400       0       0       0       0       0       0       0       0     0       0       0       0  
GARACH31 22631        0 0 160.21 8.89632 3.89632       0       0       0       0       0       0     0       0       0       0  
GARACH33 22633        0 0 160.21 5.69208 2.87383       0       0       0       0       0       0     0       0       0       0  
G1STRA31 22731        0 0 158.89       0       0       0       0       0 -151.19 148.119 -100.87     0       0       0       0  
G1STRA32 22732        0 0 158.89 5.01042 2.13833       0       0       0       0       0       0     0       0       0       0  
G2SPAR31 22831        0 0    157  6.9538 1.93253       0       0       0       0       0       0     0       0       0       0  
GOSE5_31 22931        0 0 163.62 2.86384 1.73411       0       0       0       0       0       0     0       0       0       0  
GPOYN131 23031        0 0 160.21       0       0       0       0       0   -99.9 100.387 -60.912     0       0       0       0  
GPOYN132 23032        0 0 160.21       0       0       0       0       0   -99.9 100.387 -60.912     0       0       0       0  
GPOYN133 23033        0 0 160.21       0       0       0       0       0   -99.9 100.387 -60.912     0       0       0       0  
GAMFLO31 23131        0 0 159.34 6.74627 1.07285       0       0       0       0       0       0     0       0       0       0  
GKALPA31 23231        0 0 159.96  3.2559 .352553       0       0       0       0       0       0     0       0       0       0  
G2KERK31 23331        0 0 160.58 9.08818 4.24062       0       0       0       0       0       0     0       0       0       0  
GPILOS31 23431        0 2 156.24 6.80618 2.29724 -16.486 4.87341       0     -30 4.87341 -4.8734     0       0       0       0  
GPOYN231 23531        0 0 160.21 .148489 .026919       0       0       0 -34.049 34.9059 -30.892     0       0       0       0  
GOR_AM31 23631        0 0 161.49 .000868 .197985       0       0       0       0       0       0     0       0       0       0  
GOR_AM33 23633        0 0 161.49 .000868 .199288       0       0       0       0       0       0     0       0       0       0  
GKANAL31 23731        0 0  159.9 7.24423 2.70189       0       0       0       0       0       0     0       0       0       0  
...